<configuration>
    <input>
        <net-file value="simple_grid.net.xml"/>
        <route-files value="simple_grid.rou.xml"/>
    </input>

    <time>
        <begin value="0"/>
        <end value="3600"/>
        <step-length value="1.0"/>
    </time>

    <report>
        <verbose value="true"/>
        <no-step-log value="true"/>
    </report>
</configuration>