<tlLogics>
    <tlLogic id="J0" type="static" programID="0" offset="0">
        <phase duration="31" state="GrGr"/>
        <phase duration="6"  state="yryr"/>
        <phase duration="31" state="rGrG"/>
        <phase duration="6"  state="ryry"/>
    </tlLogic>

    <tlLogic id="J1" type="static" programID="0" offset="0">
        <phase duration="31" state="GrGr"/>
        <phase duration="6"  state="yryr"/>
        <phase duration="31" state="rGrG"/>
        <phase duration="6"  state="ryry"/>
    </tlLogic>

    <tlLogic id="J2" type="static" programID="0" offset="0">
        <phase duration="31" state="GrGr"/>
        <phase duration="6"  state="yryr"/>
        <phase duration="31" state="rGrG"/>
        <phase duration="6"  state="ryry"/>
    </tlLogic>

    <tlLogic id="J3" type="static" programID="0" offset="0">
        <phase duration="31" state="GrGr"/>
        <phase duration="6"  state="yryr"/>
        <phase duration="31" state="rGrG"/>
        <phase duration="6"  state="ryry"/>
    </tlLogic>
</tlLogics>