<nodes>
    <node id="J0" x="100" y="100" type="traffic_light"/>
    <node id="J1" x="300" y="100" type="traffic_light"/>
    <node id="J2" x="100" y="300" type="traffic_light"/>
    <node id="J3" x="300" y="300" type="traffic_light"/>
</nodes>